@PART[AoA.sixtwofiveNC]:FOR[EngineeringTechTreeRemastered]:NEEDS[AoATech]
{
    // Updated by ETT
    %TechRequired = experimentalAerodynamics
}
@PART[AoAero.ADVfin]:FOR[EngineeringTechTreeRemastered]:NEEDS[AoATech]
{
    // Updated by ETT
    %TechRequired = advancedControlSurfaces
}
@PART[AoAero.TESTFin]:FOR[EngineeringTechTreeRemastered]:NEEDS[AoATech]
{
    // Not updated by ETT
    %TechRequired = aerodynamicSystems
}
@PART[AoA.BroncoCpit]:FOR[EngineeringTechTreeRemastered]:NEEDS[AoATech]
{
    // Not updated by ETT
    %TechRequired = supersonicFlight
}
@PART[AoA.cobraCockpit]:FOR[EngineeringTechTreeRemastered]:NEEDS[AoATech]
{
    // Updated by ETT
    %TechRequired = experimentalAerodynamics
}
@PART[AoA.falkenTwo]:FOR[EngineeringTechTreeRemastered]:NEEDS[AoATech]
{
    // Updated by ETT
    %TechRequired = probes2
}
@PART[AoA.falkenDroneS]:FOR[EngineeringTechTreeRemastered]:NEEDS[AoATech]
{
    // Updated by ETT
    %TechRequired = probes3
}
@PART[AoA.FlyPit]:FOR[EngineeringTechTreeRemastered]:NEEDS[AoATech]
{
    // Not updated by ETT
    %TechRequired = flightControl
}
@PART[AoA.droneTwo]:FOR[EngineeringTechTreeRemastered]:NEEDS[AoATech]
{
    // Updated by ETT
    %TechRequired = probes3
}
@PART[AoA.droneThree]:FOR[EngineeringTechTreeRemastered]:NEEDS[AoATech]
{
    // Not updated by ETT
    %TechRequired = highAltitudeFlight
}
@PART[AoA.PAKFA]:FOR[EngineeringTechTreeRemastered]:NEEDS[AoATech]
{
    // Not updated by ETT
    %TechRequired = supersonicFlight
}
@PART[AoA.Rafale]:FOR[EngineeringTechTreeRemastered]:NEEDS[AoATech]
{
    // Updated by ETT
    %TechRequired = futuristicAeroDynamics
}
@PART[AoA.SkuCockpit]:FOR[EngineeringTechTreeRemastered]:NEEDS[AoATech]
{
    // Updated by ETT
    %TechRequired = frontierAviation
}
@PART[AoA.TucanCpit]:FOR[EngineeringTechTreeRemastered]:NEEDS[AoATech]
{
    // Not updated by ETT
    %TechRequired = aviation
}
@PART[AoA.Hornet]:FOR[EngineeringTechTreeRemastered]:NEEDS[AoATech]
{
    // Updated by ETT
    %TechRequired = hypersonicFlight
}
@PART[AoA.Mk22Vector]:FOR[EngineeringTechTreeRemastered]:NEEDS[AoATech]
{
    // Updated by ETT
    %TechRequired = jetEngines3
}
